  900

  O    4.406600    2.246140   -0.630692  
  O    7.039825    3.361618    1.738815  
  O    5.887421   -0.157730   -2.364624  
  O    6.646912   -0.134674    1.387787  
  O    6.430176    0.283875    4.523300  
  O    8.247208    1.793686   -0.645218  
  O    4.112259   -1.490295   -0.036545  
  O    8.606949    2.444687    4.101364  
  O    6.046082   -3.017426    3.842133  
  O    9.784515   -0.547028    1.027512  
  O   10.328857   -0.274612    4.185364  
  O    6.699188    3.957397   -2.713928  
  O    5.630127    2.074493   -4.911606  
  O    8.709076   -1.444275   -1.910126  
  O    3.030502    0.757523   -3.083939  
  O   10.388321    3.878815    1.685959  
  O    8.889542    1.643524   -3.653824  
  O    0.351151    4.303787    1.579636  
  O    9.231216   -3.173126    3.448914  
  O    7.801239   -1.558990    6.761444  
  O    5.574158    3.804825    5.427368  
  O    8.210037    5.670868   -0.291992  
  O    4.569519   -1.833511    6.536072  
  O    4.873993    5.158585    0.327576  
  O    4.114792   -1.898438   -6.331604  
  O    5.252380    1.203537    7.691910  
  O    6.673264   -3.516068    0.678696  
  O    7.941681    6.212280    3.243790  
  O    1.015045   -1.319870   -6.167389  
  O    8.899400    1.470428    7.214523  
  O    7.337860   -1.077347   -5.197342  
  O    8.576263    4.635559    6.348831  
  O    2.052994    0.782837    1.387253  
  O    1.910782    4.036987    4.481506  
  O   12.558197    1.028824    1.546844  
  O    3.893967   -4.621658    1.898041  
  O   10.434113    4.134903   -4.853149  
  O    7.218292   -5.877563    3.081390  
  O    2.225052    3.001663    7.734695  
  O   12.536392   -2.201416    1.785294  
  O    4.435898    6.260422    3.326935  
  O   10.812881    4.808838   -1.825119  
  O    5.825851    7.136963   -2.544998  
  O   11.329178    1.702728   -1.322723  
  O    9.809021   -3.701309   -0.059845  
  O    9.210190   -3.689774   -3.960205  
  O    6.127930   -0.448334   -8.262161  
  O    2.858353    0.268982   -9.058670  
  O    6.158859    7.353226    5.840775  
  O   -1.538406   -4.808487   -0.291214  
  O    4.615784    5.362457   -5.274033  
  O    0.533386   -3.962616   -2.615906  
  O    1.452606    3.862076   -4.220673  
  O    5.387726   -7.169037    0.535706  
  O   11.193680   -2.715790    6.138504  
  O   11.276535   -0.698883   -3.541214  
  O   -1.615921   -1.743851   -3.813858  
  O    1.242722   -1.289307    5.931000  
  O    5.915253    4.107986    8.683624  
  O    5.866425   -4.500702   -5.347275  
  O    6.322784   -3.590668   -2.432083  
  O    0.867020    2.716797   -1.171616  
  O   11.726654    2.751785    4.768387  
  O    4.599594   -5.663528    5.763000  
  O   11.147903    6.023956    3.999573  
  O   12.545120   -3.783844   -2.163116  
  O    6.109787    8.294205    0.740540  
  O   14.725586    1.110200    4.646317  
  O    1.097000    7.459717    3.722809  
  O   10.391815   -7.118378    2.247269  
  O    1.669769    4.476852   -7.544510  
  O    4.881882   -1.292679    9.997131  
  O   -0.890015    9.424652   -0.517181  
  O    3.082825   -7.422760    3.522018  
  O    8.767120    6.895920   -4.101425  
  O    2.557159    8.957230   -1.925171  
  O    8.572159    1.392120   -6.963989  
  O   14.033432    3.751236    2.754059  
  O    4.576447    2.771484   -7.995453  
  O    2.697510    5.351379   10.035477  
  O   -2.428268   -4.967361   -3.535797  
  O    0.323227   -1.979233   -9.407516  
  O    5.525833   10.354828   -1.828415  
  O    6.757263   -7.929626    5.600418  
  O   10.108582   -0.773239    9.210709  
  O   -1.309097    3.600082   -6.445755  
  O    3.775375    1.748322   10.443787  
  O   10.157944   -1.954514   -6.775604  
  O    0.170059   -8.866623    2.389389  
  O    9.227341    8.297928    5.453842  
  O    8.513336    9.003647   -1.587982  
  O    8.361343   -6.570404   -0.296890  
  O    7.890137   -4.763763    6.756638  
  O   12.593002   -4.922470    3.988068  
  O   -1.528641    7.293488    1.765686  
  O    7.590698    4.458160   -6.488571  
  O   -3.857346   -0.564194    2.714172  
  O   11.610886    7.878998   -1.570602  
  O   -3.130737    1.142258   -5.028107  
  O   12.301971    0.364502    7.016525  
  O   13.765900   -1.819595    4.527237  
  O   11.745682    1.325226   -6.098740  
  O    2.282623   -4.027283    7.829575  
  O   10.042877   -6.245605    5.191589  
  O    3.086990    8.895920    5.700272  
  O   -2.849121    2.739807    2.887421  
  O    9.532578    8.225906    1.570953  
  O   10.953369   -6.621048   -2.382690  
  O    6.286880    9.704834    3.620834  
  O    7.551697   -3.643570   -7.935623  
  O   11.838058   -5.327866   -5.168823  
  O   12.405411   -5.151871    0.736008  
  O    8.273666    7.535583    8.564957  
  O    7.507309    1.346970   10.115494  
  O   -2.389496   -1.216141    5.433243  
  O    4.527878   -7.746872   -3.689011  
  O   -1.010941    0.725464    7.755142  
  O    2.754639   -5.149582   -5.272919  
  O   -0.814774   -2.579407    8.659180  
  O   -2.573334    4.049408   -0.009506  
  O    7.584610   -6.610321   -3.332626  
  O   -1.254776    8.384415   -3.872421  
  O    8.988586    4.510605    9.733673  
  O   13.183456   -2.383942   -5.230667  
  O    7.325851    2.219147   -9.770859  
  O   13.834503    1.775574   -3.570969  
  O    4.459473   -9.946548    2.030731  
  O    7.502090   -8.982925    2.572845  
  O   13.730072    4.296127    6.472717  
  O    6.516632   -9.282974   -1.516678  
  O   11.291779    6.253494    7.289200  
  O    5.013077    7.635345    8.889679  
  O    5.247604   -4.567307    8.869736  
  O   -2.657532   -3.795456    2.498000  
  O    3.874084    8.395600   -4.767548  
  O    2.736618   -9.094818   -0.571915  
  O   -4.963028   -0.458450   -2.663925  
  O    4.693924   -5.641754   -8.092163  
  O    2.849915    9.664841    1.745743  
  O   15.501602    0.050476    1.322479  
  O    3.751236   -2.779465   -9.538910  
  O    0.329681    6.930084    7.131516  
  O   11.601425    3.032776    8.694733  
  O   10.514450   -4.190933    8.879868  
  O   -0.861710   -8.375671   -0.869583  
  O   13.940689   -0.655075   -1.518082  
  O    7.765549   -2.810715    9.948227  
  O   13.896912    3.294983   -0.440994  
  O   12.537659    6.198792    1.048904  
  O   15.137619   -3.332825    0.224777  
  H     4.202988    1.280563   -0.556030 
  H     4.647125    2.424194   -1.575104  
  H     6.590485    4.113708    2.199402  
  H     6.598923    3.256470    0.859543  
  H     6.538879    0.370590   -2.890091  
  H     5.355820   -0.685120   -3.012543  
  H     6.770660   -0.799561    0.664688  
  H     6.103790    0.602478    1.011353  
  H     6.187744    0.989792    3.871780  
  H     7.283569   -0.116287    4.216995  
  H     8.574890    2.678757   -0.944992  
  H     7.329529    1.691284   -1.002151  
  H     3.409805   -1.067322   -0.592300  
  H     4.701920   -1.998291   -0.649277  
  H     8.747345    3.406998    3.913956  
  H     8.813019    1.949371    3.267792  
  H     6.449387   -2.673080    4.677750  
  H     6.114136   -2.293671    3.169800  
  H     9.272141   -1.202057    1.566254  
  H     9.546982    0.355743    1.360977  
  H     9.663269   -0.749634    4.744400  
  H    11.052292   -0.919296    3.979355  
  H     6.312653    4.371185   -1.902039  
  H     7.562317    4.411087   -2.889481  
  H     4.876602    2.465149   -4.399643  
  H     5.350159    1.171188   -5.208023  
  H     8.124115   -1.587402   -1.123688  
  H     8.976074   -0.492020   -1.902924  
  H     2.526291    1.609009   -3.079346  
  H     2.480331    0.096008   -3.572769  
  H     9.858810    3.316711    1.065796  
  H     9.969986    4.776718    1.694748  
  H     8.245514    2.169373   -4.189682  
  H     9.576400    1.305908   -4.281570  
  H     1.288467    4.013794    1.440170  
  H     0.356430    4.943420    2.336014  
  H     8.945496   -3.568481    4.311157  
  H     9.378677   -3.922700    2.817902  
  H     7.386383   -1.221085    7.595093  
  H     8.661621   -1.977203    7.016312  
  H     6.142044    3.046402    5.716202  
  H     5.867996    4.050827    4.514603  
  H     8.755341    6.470871   -0.499878  
  H     7.615372    5.913269    0.461777  
  H     4.388870   -1.367813    5.681213  
  H     3.730804   -1.808090    7.061111  
  H     4.872269    6.063950   -0.071304  
  H     3.952042    4.803391    0.258438  
  H     4.701050   -2.523834   -6.827300  
  H     4.665939   -1.480560   -5.621948  
  H     5.870728    0.662247    7.140976  
  H     4.416367    0.681747    7.786530  
  H     6.425522   -4.462662    0.523575  
  H     7.412796   -3.512878    1.336456  
  H     7.221039    6.820343    2.940506  
  H     7.600266    5.731888    4.039154  
  H     1.435913   -1.288193   -5.271088  
  H     1.437653   -2.068481   -6.659683  
  H     9.425232    0.891602    6.606842  
  H     8.083069    1.743286    6.724197  
  H     8.177856   -0.997284   -4.678467  
  H     7.384186   -1.931870   -5.696472  
  H     9.439316    4.220352    6.600296  
  H     8.306824    5.223419    7.098373  
  H     1.868332    0.925766    0.425598  
  H     1.552582    1.474777    1.889816  
  H     1.346237    4.046234    5.295105  
  H     2.842300    3.885773    4.780243  
  H    11.900650    1.730606    1.312958  
  H    12.187103    0.534180    2.319702  
  H     4.294785   -4.915787    2.754623  
  H     4.067535   -3.650528    1.815353  
  H    11.070679    3.541656   -4.378723  
  H    10.854248    5.031662   -4.899200  
  H     7.364761   -5.562851    4.008896  
  H     6.329453   -6.314743    3.063522  
  H     2.077500    2.033127    7.878372  
  H     3.184097    3.118256    7.514450  
  H    11.642944   -2.548920    2.034912  
  H    12.509064   -1.996323    0.816208  
  H     4.531800    6.909683    2.585388  
  H     3.811798    5.556931    3.016174  
  H    10.012466    4.240448   -1.958435  
  H    11.140320    4.638443   -0.905914  
  H     6.526550    7.161118   -1.847046  
  H     5.033188    7.600754   -2.173935  
  H    10.928329    0.816803   -1.133636  
  H    11.281769    1.843948   -2.301727  
  H     9.417557   -4.022018   -0.911423  
  H    10.525345   -3.059753   -0.296738  
  H     9.239288   -4.546570   -4.457047  
  H    10.092850   -3.572296   -3.525513  
  H     5.717209   -0.512878   -9.162048  
  H     5.551971    0.148682   -7.719803  
  H     2.625641   -0.489090   -8.464691  
  H     2.430695    0.095245   -9.936050  
  H     6.359146    6.561920    6.402405  
  H     6.429077    8.155365    6.356369  
  H    -1.206665   -5.246841    0.531723  
  H    -1.022293   -3.970444   -0.392761  
  H     5.499176    5.507141   -4.849167  
  H     4.739639    4.679016   -5.979980  
  H     0.836823   -4.701096   -2.030762  
  H     0.964630   -4.095459   -3.496796  
  H     0.839447    3.692657   -4.978439  
  H     2.372940    3.853760   -4.586838  
  H     5.485474   -6.830505   -0.390411  
  H     4.416870   -7.214218    0.724396  
  H    12.011215   -2.903275    6.666977  
  H    10.634140   -3.532654    6.168152  
  H    10.655900   -1.152740   -4.165848  
  H    11.484497   -1.343475   -2.818359  
  H    -1.764435   -0.954880   -3.234680  
  H    -0.636292   -1.854324   -3.907486  
  H     1.097763   -0.417480    6.377319  
  H     1.321915   -1.106567    4.961624  
  H     6.582077    3.537231    8.223511  
  H     5.862762    3.794968    9.622421  
  H     5.472656   -5.187973   -4.751968  
  H     6.850418   -4.564514   -5.254913  
  H     7.148605   -3.947571   -2.017807  
  H     6.595764   -2.897644   -3.084808  
  H     1.687149    3.267410   -1.250916  
  H     0.194977    3.097870   -1.790894  
  H    11.435486    2.328094    3.922134  
  H    11.066772    2.501800    5.462738  
  H     3.638809   -5.855591    5.914000  
  H     4.671967   -4.712341    5.497635  
  H    12.035721    5.589355    3.928452  
  H    10.509384    5.333466    4.312149  
  H    12.803452   -3.120193   -1.474854  
  H    13.174179   -4.545868   -2.082382  
  H     5.228912    8.679260    0.498947  
  H     6.771393    9.031158    0.704285  
  H    15.210510    1.971146    4.567261  
  H    13.939331    1.160843    4.045731  
  H     1.637634    6.797302    4.222824  
  H     0.488281    7.892792    4.374466  
  H    10.197189   -6.165115    2.436783  
  H    11.241425   -7.341934    2.706818  
  H     1.849808    3.957794   -8.369949  
  H     2.481750    5.013107   -7.354218  
  H     5.407516   -1.393143    9.163452  
  H     4.363159   -2.128998   10.116425  
  H    -0.239578    9.212708    0.200348  
  H    -1.728882    9.713898   -0.074982  
  H     2.727188   -7.604568    2.615082  
  H     4.071503   -7.456375    3.457458  
  H     7.868195    6.655563   -4.443222  
  H     8.834686    6.535110   -3.180725  
  H     1.931747    9.309326   -1.241455  
  H     2.005615    8.531693   -2.630554  
  H     8.683807    0.461548   -7.285294  
  H     7.611313    1.517212   -6.756851  
  H    14.612503    4.263992    2.134079  
  H    13.121826    3.743698    2.366379  
  H     5.508362    3.012833   -7.761719  
  H     4.553223    2.606979   -8.972763  
  H     3.272903    4.556198    9.897690  
  H     2.128265    5.444519    9.229385  
  H    -2.565048   -4.226730   -2.891785  
  H    -1.703690   -5.539749   -3.175629  
  H    -0.255829   -1.245850   -9.738892  
  H    -0.143997   -2.396713   -8.640396  
  H     5.200867   10.203140   -2.752991  
  H     4.776840   10.755478   -1.316681  
  H     6.591919   -7.511154    6.484100  
  H     5.879791   -8.229919    5.248962  
  H    10.601425    0.070084    9.377502  
  H    10.558563   -1.227600    8.454300  
  H    -2.190094    3.175200   -6.598175  
  H    -1.214111    4.320221   -7.120377  
  H     4.760391    1.642700   10.463547  
  H     3.409790    1.169388   11.160858  
  H    10.160675   -2.911133   -6.515884  
  H     9.746048   -1.897705   -7.675522  
  H    -0.456818   -9.524292    1.992004  
  H     0.452896   -9.227402    3.268448  
  H     9.130188    7.326080    5.620361  
  H    10.187454    8.467285    5.273941  
  H     8.808640    9.721817   -0.971420  
  H     8.223343    9.440948   -2.429306  
  H     8.347961   -6.152084    0.600830  
  H     9.076172   -7.256821   -0.289886  
  H     7.845032   -4.490326    7.707489  
  H     7.064316   -4.434433    6.320480  
  H    11.823227   -4.334702    3.778641  
  H    13.388718   -4.527451    3.547821  
  H    -1.645020    7.389191    2.744812  
  H    -1.694260    6.342239    1.544083  
  H     8.497208    4.562866   -6.875900  
  H     7.698944    4.029083   -5.601929  
  H    -4.354279    0.006516    2.075256  
  H    -2.909653   -0.278824    2.679413  
  H    10.913100    7.651489   -0.904617  
  H    11.236771    7.674530   -2.466049  
  H    -3.354752    1.549759   -4.155700  
  H    -3.393738    0.189072   -4.981033  
  H    13.113220    0.911758    7.174286  
  H    12.318436    0.088455    6.065613  
  H    14.505829   -1.863861    3.868958  
  H    14.182404   -1.760986    5.425156  
  H    11.287994    0.457230   -6.235641  
  H    11.379669    1.956406   -6.770142  
  H     1.521088   -3.727890    7.271454  
  H     2.047806   -3.833832    8.773224  
  H    10.349991   -6.071564    6.118210  
  H     9.283508   -6.879883    5.249542  
  H     3.678894    8.625565    4.952805  
  H     3.646683    8.927628    6.518143  
  H    -2.018600    3.211166    2.625061  
  H    -3.257233    2.380676    2.060181  
  H    10.013962    7.368774    1.695419  
  H     9.472458    8.658157    2.461197  
  H    10.386932   -5.811234   -2.312012  
  H    10.558731   -7.188600   -3.093567  
  H     5.767288    8.863480    3.562286  
  H     7.240189    9.450119    3.716644  
  H     7.530777   -4.634262   -7.971146  
  H     6.641220   -3.323715   -8.162125  
  H    12.678802   -5.242157   -4.650360  
  H    11.959717   -4.816849   -6.009720  
  H    13.307236   -5.535950    0.883972  
  H    11.908691   -5.791748    0.164474  
  H     9.206985    7.825073    8.399368  
  H     7.747803    8.354324    8.754440  
  H     8.447845    1.647720   10.027435  
  H     7.403885    0.539551    9.549500  
  H    -2.740372   -0.295319    5.335663  
  H    -1.408081   -1.139389    5.533539  
  H     3.822769   -7.630142   -4.376100  
  H     4.072144   -7.995087   -2.844131  
  H    -0.255997    1.345520    7.594589  
  H    -0.857254    0.303650    8.637390  
  H     2.520447   -4.253967   -5.626816  
  H     2.084610   -5.786240   -5.628952  
  H    -0.496948   -2.088791    7.860321  
  H    -1.583908   -3.130722    8.368378  
  H    -1.744247    4.462219   -0.361038  
  H    -3.309036    4.292496   -0.627045  
  H     6.893845   -6.488861   -2.631989  
  H     7.575058   -7.567444   -3.590439  
  H    -1.007416    8.857605   -4.707825  
  H    -0.577682    8.628326   -3.191025  
  H     9.723557    5.168015    9.631195  
  H     8.234482    4.985107   10.168549  
  H    13.104477   -1.543472   -5.751190  
  H    13.679703   -2.166412   -4.399887  
  H     7.833832    2.968750   -9.366028  
  H     7.959641    1.464966   -9.885468  
  H    13.571609    0.916168   -3.989517  
  H    13.346558    2.494690   -4.048004  
  H     5.161179  -10.077850    1.342560  
  H     4.893524  -10.051071    2.916168  
  H     7.740387   -8.447906    1.773422  
  H     8.183304   -8.791870    3.267517  
  H    13.898500    3.334274    6.645111  
  H    13.917389    4.457626    5.512833  
  H     7.070160   -9.275635   -0.693909  
  H     5.617111   -9.611862   -1.259247  
  H    11.989960    6.592758    6.672745  
  H    11.758560    5.878967    8.079361  
  H     5.255157    6.801102    9.367813  
  H     4.041687    7.780731    9.025879  
  H     4.674820   -5.361343    8.713500  
  H     5.147491   -3.973221    8.083191  
  H    -2.980637   -3.146103    1.823212  
  H    -2.561493   -3.303665    3.352676  
  H     4.842087    8.323227   -4.970490  
  H     3.385712    8.063248   -5.563614  
  H     1.975113   -9.201340   -1.197647  
  H     2.364532   -9.137482    0.346100  
  H    -4.921814   -0.003632   -1.785278  
  H    -4.165161   -1.040985   -2.728424  
  H     4.193863   -4.891434   -7.681656  
  H     4.721100   -6.372940   -7.422577  
  H     3.332855    9.181335    2.464005  
  H     1.942596    9.867874    2.090805  
  H    14.835052   -0.447617    1.860718  
  H    15.453735    1.000671    1.602859  
  H     4.548492   -3.249588   -9.894608  
  H     2.977448   -3.058426  -10.092590  
  H     1.086502    7.512146    7.398666  
  H     0.705109    6.197647    6.579865  
  H    10.932846    2.476868    9.170532  
  H    11.259033    3.172150    7.775787  
  H     9.926453   -4.941147    9.153214  
  H    10.678558   -3.640381    9.688019  
  H    -1.139633   -7.495392   -1.231293  
  H    -1.653671   -8.970367   -0.906967  
  H    13.344086   -0.243576   -0.842972  
  H    14.762253   -0.101974   -1.558121  
  H     7.914612   -1.968918   10.450378  
  H     7.194794   -3.388397   10.516815  
  H    14.119095    2.331070   -0.507645  
  H    13.561127    3.580978   -1.328857  
  H    13.110046    5.991562    0.266357  
  H    12.685074    7.153610    1.271942  
  H    15.146317   -3.187927    1.205841  
  H    15.645370   -2.585434   -0.183319  
  O    -7.895691    0.055267   -0.315643  
  O    -5.427155    2.017212    0.411148  
  O    -8.037750   -2.208160   -2.459274  
  O    -5.469711   -1.767900    0.241714  
  O    -7.326431   -0.898087    3.002380  
  O    -2.377808    1.226227   -1.640976  
  O    -8.632721   -3.404343    0.432144  
  O    -5.741028    2.103302    3.804291  
  O    -5.857605   -3.652710    3.560425  
  O    -2.396469   -1.682022   -0.537842  
  O    -0.354004   -1.619110    2.836411  
  O    -5.000854    2.928100   -2.668671  
  O    -6.197739    0.480911   -5.568863  
  O    -5.297852   -4.018631   -2.322449  
  O    -8.523804    0.803909   -3.564575  
  O    -1.083054    0.952713    1.115723  
  O    -2.000900   -0.711868   -7.321564  
  O   -10.073822    2.590881    1.336000  
  O    -3.502502   -6.312134    4.292725  
  O    -4.268311   -3.638870    6.372055  
  O    -7.982162    4.447647    5.728012  
  O    -5.982986    5.429474   -0.228943  
  O    -7.933838   -2.873871    6.145142  
  O    -7.985443    3.193436   -1.385910  
  O    -7.852829   -2.475327   -5.532394  
  O    -5.604523   -0.607529    5.728271  
  O    -5.366776   -4.796204    0.649323  
  O    -4.268173    5.700439    2.533859  
  O   -11.077789   -1.626740   -3.712204  
  O    -3.630539   -0.944717    8.449265  
  O    -4.322891   -2.530991   -5.361389  
  O    -2.736969    2.537643    6.066055  
  O   -10.476288   -0.667725    1.580078  
  O   -11.011734    3.171860    4.368683  
  O     0.802689   -0.825989   -1.562698  
  O    -8.648331   -4.988129    3.565643  
  O    -1.835846    4.504654   -3.189453  
  O    -6.008728   -7.257370    2.595657  
  O    -8.950165    1.019104    4.914902  
  O     1.356200   -3.072388    0.695160  
  O    -7.615585    4.200531    2.361221  
  O     0.193024    6.479065   -1.560654  
  O    -5.041580    6.530900   -3.481842  
  O    -0.103867    1.067902   -4.299988  
  O    -4.035065   -7.084457   -1.719116  
  O    -3.529709   -6.461044   -6.351700  
  O    -5.692337   -1.054855   -8.420898  
  O    -9.529100   -0.312256   -6.885849  
  O    -5.004272    5.234161    5.685394  
  O   -11.707138   -4.456757    1.868790  
  O    -7.695114    4.142288   -4.371719 
  O    -8.938751   -5.115753   -2.571060 
  O   -10.979614    3.521912   -3.487289 
  O    -8.523865   -6.407013    0.693954 
  O    -0.956589   -4.073868    5.770325 
  O    -0.400925   -4.233688   -6.077194 
  O   -11.853271   -2.695435   -0.928696 
  O   -10.393082   -2.395279    4.246628 
  O    -6.021500    2.139023    7.131531 
  O    -6.356598   -5.453400   -4.804825 
  O    -7.110229   -7.704941   -1.760513 
  O   -10.818069    0.832977   -1.368454 
  O    -0.071823    1.421188    4.230881 
  O    -6.669800   -6.271133    5.889100 
  O    -1.226196    5.261154    4.614227 
  O     0.996384   -7.185120   -3.424149 
  O    -7.918945    7.426895    1.236267 
  O     3.083084    1.164963    5.314743 
  O   -10.278931    6.371017    3.116089 
  O    -2.967636   -7.231873    1.202637 
  O    -9.972687    2.861908   -6.668259 
  O    -6.409836   -3.374329    8.900543 
  O   -10.249542    5.218124   -0.378647 
  O    -8.485168   -8.701416    4.311966 
  O    -2.806458    6.825409   -6.149139 
  O    -8.964584    6.705612   -2.894150 
  O    -3.890610    1.821182   -8.191864 
  O     4.152405    2.748291    2.646561 
  O    -6.917740    2.866165   -7.485016 
  O    -9.641403    2.975266    7.979156 
  O   -11.652130   -4.718826   -4.236710 
  O   -11.642105   -2.586716   -6.907394 
  O    -6.725586    8.464005   -1.470703 
  O    -5.007507   -9.095657    5.825943 
  O    -1.414642   -0.651703   11.265396 
  O   -12.242538    0.891525   -5.277374 
  O    -8.504593    0.007278    7.995712 
  O    -2.629028   -3.595932   -8.287659 
  O   -11.097290   -7.658722    2.294067 
  O    -3.571365    8.078964    4.804993 
  O    -3.926147    9.766052   -2.609314 
  O    -4.736343   -9.957214   -0.478378 
  O    -3.133377   -6.477097    7.650818 
  O     0.002426   -5.615494    3.089127 
  O   -12.884094    5.128998    1.816605 
  O    -4.659561    4.268250   -5.717743 
  O   -13.840973   -0.492355    0.403442 
  O     0.983200    6.745712   -5.327774 
  O   -13.972061    0.759048   -2.715561 
  O     1.805832   -0.878830    9.083542 
  O     2.168869   -3.911270    4.461121 
  O    -0.032944    1.655441   -8.957214 
  O   -10.971863   -5.943954    5.388718 
  O    -0.948502   -7.845352    5.432678 
  O    -6.893631    7.679184    4.268646 
  O   -13.475021    1.899002    2.795349 
  O    -3.104309    6.966629   -1.005234 
  O    -2.085495   -8.923798   -3.750519 
  O    -4.774963    8.988815    1.716400 
  O    -5.609833   -4.348221   -7.791336 
  O    -0.526688   -7.544235   -6.329819 
  O     1.327469   -6.361603    0.096848 
  O    -2.860703    6.310776    7.698822 
  O    -6.196320   -0.026443   10.117188 
  O   -13.301727   -1.473114    3.331802 
  O    -9.378448   -7.931946   -4.155121 
  O   -11.917053    0.188293    5.791946 
  O    -9.309341   -5.402252   -6.415100 
  O   -10.980118   -2.690048    7.480072 
  O   -13.300659    2.796021   -0.365173 
  O    -5.299774   -8.931763   -4.257996 
  O   -12.927444    5.781830   -1.943176 
  O    -3.578644    2.351913    9.329300 
  O     1.359085   -5.174271   -8.399979 
  O    -8.189667    0.657135   -9.817139 
  O     2.627700    1.484863   -5.988693 
  O    -7.358307   -9.918167    1.463196 
  O    -3.659821   -9.776138    2.915878 
  O     3.367874    5.853638    6.785614 
  O    -7.574158  -10.857025   -2.582458 
  O    -0.794250    3.972290    8.344559 
  O    -6.084778    4.781800    8.973663 
  O    -9.196472   -5.322311    8.210312 
  O   -14.533890   -4.143661    0.109955 
  O    -7.010483    7.175034   -6.139954 
  O    -9.849030   -9.169678   -0.581314 
  O   -14.494858   -2.540543   -2.846741 
  O    -7.028824   -7.812744   -6.814651 
  O   -11.202271    8.188065    0.440200 
  O     3.526749   -1.167282    3.154251 
  O    -8.684448   -2.573273   -9.008484 
  O   -10.821487    5.772034    6.388031 
  O     0.641724    1.916733   10.432449 
  O    -0.186768   -5.764587    8.798218 
  O   -11.740082   -6.151900   -1.128357 
  O     3.244629   -2.434967   -3.441100 
  O    -3.490540   -4.165955    9.903778 
  O     3.189178    5.432480   -2.268814 
  O     2.162033    6.738144    0.862503 
  O     3.620544   -5.167969   -1.606735 
  H    -7.363937    0.456696   -1.048691 
  H    -8.415726    0.785324    0.104080 
  H    -6.071716    1.645691    1.065186 
  H    -5.333786    2.981613    0.616638 
  H    -7.440857   -1.501100   -2.809265 
  H    -8.887573   -1.772461   -2.199219 
  H    -5.925629   -2.061508    1.068787 
  H    -6.031509   -2.063049   -0.517532 
  H    -7.455566   -0.111420    2.414093 
  H    -7.944580   -1.605072    2.686600 
  H    -2.178421    2.124817   -2.003494 
  H    -3.042084    1.347565   -0.915817 
  H    -8.515686   -2.422974    0.379593 
  H    -7.851395   -3.815460   -0.016388 
  H    -5.490128    3.048386    3.964371 
  H    -5.079742    1.544998    4.285706 
  H    -5.478775   -4.559830    3.442963 
  H    -5.211517   -3.013107    3.168945 
  H    -3.000397   -2.388779   -0.881927 
  H    -2.933212   -1.096680    0.053513 
  H    -0.725372   -1.833908    1.943390 
  H     0.444214   -1.052658    2.687469 
  H    -5.714233    2.246262   -2.583115 
  H    -5.335052    3.753250   -2.236862 
  H    -5.991928    1.208282   -4.929077 
  H    -6.171921   -0.368820   -5.061371 
  H    -6.219833   -4.270676   -2.061752 
  H    -5.374222   -3.298431   -2.997772 
  H    -8.970856    1.678528   -3.684158 
  H    -8.772095    0.247100   -4.344513 
  H    -0.683609    0.301437    0.486603 
  H    -0.858078    1.856339    0.778976 
  H    -1.570755    0.134155   -7.039413 
  H    -1.767090   -1.392487   -6.641541 
  H    -9.639145    2.028687    2.026703 
  H   -10.894913    2.119415    1.045883 
  H    -4.157318   -6.500458    5.010483 
  H    -2.797913   -5.741791    4.689468 
  H    -3.644226   -3.273911    7.048721 
  H    -3.859756   -3.477951    5.484619 
  H    -7.991516    5.272110    5.178894 
  H    -7.706345    3.705933    5.133286 
  H    -6.711000    5.668823   -0.855545 
  H    -5.541962    6.273788    0.039520 
  H    -7.689224   -2.618835    5.220306 
  H    -8.535873   -3.657333    6.081116 
  H    -8.937576    3.084946   -1.634384 
  H    -7.953827    3.331070   -0.405731 
  H    -8.640961   -3.014297   -5.269043 
  H    -7.071045   -2.854248   -5.057480 
  H    -5.380356   -1.229660    4.991302 
  H    -5.801926   -1.159409    6.526016 
  H    -5.660522   -5.655304    0.253174 
  H    -4.458466   -4.610016    0.300049 
  H    -3.710052    5.487350    3.323318 
  H    -4.392807    4.856491    2.031174 
  H   -11.993607   -1.843063   -4.022461 
  H   -10.503632   -1.569092   -4.516663 
  H    -3.719238   -0.199631    7.803558 
  H    -3.387421   -0.544632    9.321472 
  H    -3.560135   -3.161652   -5.404266 
  H    -4.328156   -2.022812   -6.211334 
  H    -3.309845    3.082123    5.470963 
  H    -3.301697    1.801666    6.412689 
  H   -10.786697   -0.280273    2.437637 
  H   -10.907852   -1.554611    1.484848 
  H   -11.788818    3.783615    4.304337 
  H   -10.206985    3.697845    4.128296 
  H     0.157913   -1.510956   -1.253967 
  H     0.276077   -0.022247   -1.803574 
  H    -7.907379   -5.532303    3.199800 
  H    -8.639145   -4.123062    3.084290 
  H    -1.237488    5.088486   -3.721252 
  H    -2.445267    4.051041   -3.825851 
  H    -5.715012   -7.826080    3.351166 
  H    -5.660843   -7.672806    1.766739 
  H    -8.356430    0.326324    5.300598 
  H    -8.444336    1.471848    4.193558 
  H     1.140396   -3.831650    1.293259 
  H     1.942459   -3.422318   -0.022903 
  H    -6.930756    4.875000    2.599426 
  H    -8.251434    4.643387    1.745041 
  H    -0.358444    6.551208   -0.741562 
  H     0.548400    5.555481   -1.583069 
  H    -4.357773    5.830734   -3.329514 
  H    -5.921158    6.128265   -3.267395 
  H    -0.130890    1.175751   -5.284607 
  H    -0.593445    1.835648   -3.910370 
  H    -4.328979   -6.861298   -2.638458 
  H    -3.557739   -6.291061   -1.369019 
  H    -3.546066   -6.945190   -5.487198 
  H    -3.082870   -5.591721   -6.187927 
  H    -6.436676   -1.178345   -7.778336 
  H    -5.831528   -1.706223   -9.155167 
  H    -8.579636   -0.062653   -7.018539 
  H   -10.032455    0.028839   -7.668640 
  H    -5.057434    4.513535    6.362213 
  H    -5.378784    6.050156    6.104904 
  H   -11.476563   -4.474564    2.832062 
  H  -10.855087   -4.417831    1.365158 
  H   -7.707031    4.666504   -5.212158 
  H   -7.149689    3.333786   -4.543182 
  H    -9.584854   -4.507584   -2.130325 
  H    -8.809067   -4.783646   -3.495438 
  H   -11.957306    3.556107   -3.648500 
  H   -10.645111    4.454453   -3.516281 
  H    -9.193283   -6.419724   -0.035782 
  H    -8.447800   -7.333466    1.036514 
  H    -0.594208   -3.520020    5.033400 
  H    -0.333328   -4.833130    5.901871 
  H    -1.123062   -3.594162   -5.854355 
  H    -0.426071   -4.951111   -5.395584 
  H   -12.097137   -3.455444   -1.515106 
  H   -10.866409   -2.620880   -0.951187 
  H   -10.046875   -1.540466    4.607254 
  H   -11.255280   -2.576706    4.698746 
  H    -6.769104    1.828339    6.561707 
  H    -5.781448    1.388519    7.731613 
  H    -6.323822   -6.298111   -4.288986 
  H    -5.422607   -5.139618   -4.903305 
  H    -6.790817   -8.093353   -0.906800 
  H    -6.898422   -6.737503   -1.736893 
  H   -10.587875   -0.128311   -1.307678 
  H   -11.055023    1.014023   -2.312622 
  H    -0.965515    1.033875    4.051926 
  H    -0.124634    1.879623    5.107666 
  H    -7.638870   -6.373596    6.069200 
  H    -6.477753   -5.299423    5.868805 
  H    -1.947769    5.385849    5.280685 
  H    -1.007874    4.295273    4.607574 
  H     1.550354   -7.007935   -2.622025 
  H     0.678085   -8.121078   -3.355606 
  H    -8.443222    7.235504    0.417603 
  H    -8.232025    8.300232    1.585449 
  H     4.016327    1.442993    5.137878 
  H     2.617935    1.135574    4.440948 
  H    -9.492950    6.561981    3.688461 
  H   -11.086563    6.561218    3.658432 
  H    -3.277115   -6.410202    1.659698 
  H    -2.219559   -7.597626    1.737991 
  H   -10.152664    3.806824   -6.427536 
  H    -9.380493    2.491333   -5.965561 
  H    -6.315430   -4.151733    8.292038 
  H    -6.073380   -2.579636    8.414000 
  H   -10.808548    4.422287   -0.566696 
  H   -10.278214    5.368835    0.599258 
  H    -9.123000   -9.369324    3.951050 
  H    -8.471405   -7.942902    3.675217 
  H    -3.527252    7.462433   -5.908081 
  H    -2.622345    6.279907   -5.342972 
  H    -8.513260    5.962234   -2.419312 
  H    -9.361282    7.293839   -2.201263 
  H    -4.385574    1.698669   -9.042191 
  H    -4.254974    1.162170   -7.548386 
  H     3.502106    3.145950    2.014496 
  H     4.536728    1.948853    2.206955 
  H    -7.392822    3.404388   -8.168747 
  H    -7.039902    1.913284   -7.727341 
  H    -8.655716    2.947266    8.080856 
  H    -9.849609    2.647003    7.067627 
  H   -12.493027   -4.696960   -3.712112 
  H   -11.398453   -5.672043   -4.337219 
  H   -12.436646   -3.161636   -6.761398 
  H   -10.854874   -3.092514   -6.581177 
  H    -6.646484    8.807602   -2.397247 
  H    -5.969482    8.839279   -0.951324 
  H    -4.903870   -8.540573    6.640778 
  H    -5.972977   -9.106445    5.601120 
  H    -0.467484   -0.830200   11.033859 
  H    -1.894760   -1.517807   11.211044 
  H   -12.178055    0.755783   -6.257187 
  H   -11.320862    1.018860   -4.936295 
  H    -7.950470   -0.814148    8.005524 
  H    -8.881638    0.114944    8.906250 
  H    -2.856873   -4.503220   -8.616074 
  H    -3.277634   -2.965515   -8.694092 
  H   -10.552979   -6.927597    2.681366 
  H   -12.036072   -7.498734    2.570145 
  H    -2.702423    7.758209    5.156876 
  H    -4.135284    8.304291    5.588287 
  H    -3.111176   10.327362   -2.670593 
  H    -3.991791    9.248993   -3.452774 
  H    -4.568146   -9.225983    0.168503 
  H    -3.943695  -10.009888   -1.071564 
  H    -2.647232   -5.643723    7.425629 
  H    -4.083572   -6.231964    7.794617 
  H    -0.882400   -6.058060    3.051773 
  H     0.594238   -6.196793    3.630966 
  H   -12.254974    4.365600    1.872467 
  H   -13.801208    4.752472    1.806046 
  H    -4.631805    4.497025   -6.681900 
  H    -4.778152    3.287140   -5.655106 
  H   -14.546478    0.042282   -0.042130 
  H   -12.979691   -0.259232   -0.026825 
  H     0.167877    6.279053   -5.645432 
  H     0.999954    6.662491   -4.340302 
  H   -14.520004    0.727615   -3.541168 
  H   -13.310730    0.023575   -2.775269 
  H     1.846115   -0.797943   10.070480 
  H     2.386337   -0.168976    8.710129 
  H     1.722198   -3.490204    3.683807 
  H     2.858429   -3.274368    4.775864 
  H    -0.987534    1.923035   -8.976074 
  H     0.206848    1.504944   -8.007446 
  H   -10.712814   -4.996338    5.520981 
  H   -10.146255   -6.486160    5.475433 
  H    -0.572952   -7.489059    6.278214 
  H    -1.817108   -8.268967    5.655045 
  H    -6.577393    8.594788    4.058395 
  H    -6.379623    7.055466    3.696136 
  H   -12.743271    1.339478    2.429977 
  H   -14.286652    1.703200    2.260849 
  H    -2.676605    7.263123   -1.847961 
  H    -3.431519    7.777008   -0.538910 
  H    -2.007782   -7.940018   -3.842194 
  H    -2.269730   -9.286819   -4.654617 
  H    -5.078644    8.055328    1.585831 
  H    -3.867737    8.945724    2.113205 
  H    -5.836945   -5.307129   -7.897720 
  H    -6.375656   -3.917191   -7.335129 
  H    -0.775131   -7.151093   -7.205719 
  H     0.463531   -7.585144   -6.301239 
  H     2.202255   -6.225113    0.539627 
  H     0.758896   -6.857162    0.737549 
  H    -2.278091    6.792480    8.340179 
  H    -3.348953    5.618668    8.213928 
  H    -5.704163    0.779190   10.419220 
  H    -5.811157   -0.803436   10.597549 
  H   -13.330917   -2.173386    2.631134 
  H   -14.182159   -1.017227    3.326736 
  H    -8.508743   -7.466461   -4.248900 
  H    -9.619614   -7.907837   -3.194200 
  H   -11.407242    0.824570    6.355743 
  H   -11.865509    0.518204    4.858490 
  H    -8.389755   -5.395065   -6.783600 
  H    -9.668304   -6.317215   -6.544174 
  H   -10.471344   -1.844498    7.389526 
  H   -11.936752   -2.470352    7.339157 
  H   -12.673615    2.826477   -1.131470 
  H   -14.211166    2.943314   -0.728607 
  H    -6.289856   -8.965363   -4.282761 
  H    -5.012390   -9.424637   -3.447205 
  H   -13.193436    5.916718   -0.997528 
  H   -12.244720    6.469482   -2.155304 
  H    -3.561111    3.148697    8.740112 
  H    -2.654816    2.211624    9.659958 
  H     0.436508   -5.104797   -8.757233 
  H     1.621964   -4.268494   -8.094589 
  H    -9.066391    0.600739  -10.277008 
  H    -7.552078    0.105057  -10.338455 
  H     3.172150    0.717331   -6.296707 
  H     2.193207    1.875534   -6.787018 
  H    -7.381851  -10.649017    0.794037 
  H    -6.688187  -10.174011    2.148102 
  H    -4.035187  -10.526886    3.443573 
  H    -3.231110   -9.154785    3.558670 
  H     4.167007    5.446884    7.204468 
  H     3.615250    6.092636    5.857849 
  H    -8.276794  -10.201096   -2.824173 
  H    -7.243042  -10.608932   -1.682053 
  H    -0.185318    4.621506    8.779770 
  H    -0.609406    4.005203    7.370880 
  H    -6.872498    4.893219    8.381714 
  H    -6.190613    3.912064    9.438431 
  H   -10.159790   -5.547409    8.278748 
  H    -9.071060   -4.446823    8.658386 
  H   -13.942398   -4.924149    0.263046 
  H   -14.173462   -3.393585    0.648331 
  H    -7.192093    7.460556   -5.207687 
  H    -6.097900    6.787827   -6.154633 
  H   -10.508606   -9.643829   -1.149765 
  H   -10.017609   -9.450729    0.354340 
  H   -14.627197   -2.136673   -1.950912 
  H   -14.821243   -3.475555   -2.797272 
  H    -6.041840   -7.762634   -6.895325 
  H    -7.284149   -8.761810   -6.945877 
  H   -10.976593    8.731049    1.238754 
  H   -11.851074    7.498535    0.733871 
  H     2.923828   -1.529297    2.458023 
  H     4.182404   -0.579544    2.700439 
  H    -8.732590   -3.045197   -8.138550 
  H    -9.598907   -2.250122   -9.214874 
  H   -10.069885    5.897171    7.022766 
  H   -11.361725    5.010391    6.721588 
  H    -0.302612    2.056152   10.700195 
  H     1.085785    2.802490   10.468048 
  H    -0.252548   -6.753784    8.815186 
  H    -0.793945   -5.422165    9.503479 
  H   -11.251007   -6.805908   -1.689819 
  H   -11.913010   -6.590363   -0.256363 
  H     3.899094   -3.157562   -3.612885 
  H     2.929779   -2.543961   -2.508789 
  H    -3.752792   -3.238770   10.137955 
  H    -4.154755   -4.772186   10.321396 
  H     3.841385    4.765700   -2.603790 
  H     3.023743    6.078720   -3.001389 
  H     1.345108    7.270416    1.037491 
  H     2.632751    7.170959    0.106613 
  H     4.148041   -4.603058   -0.986176 
  H     4.185623   -5.334351   -2.402771 



